./sim-outorder -config config/default.cfg -fastfwd 1000000 -max:inst 1000000 reabmk
