./sim-outorder -config config/bdi.cfg -fastfwd 1000000 -max:inst 1000000 reabmk
