./sim-outorder -config config/0_uncompressed.cfg -fastfwd 1000000 -max:inst 1000000 reabmk
./sim-outorder -config config/1_l2bdi.cfg -fastfwd 1000000 -max:inst 1000000 reabmk
